Info: SIMULATION PARAMETERS:
Info: TIMESTEP               1
Info: NUMBER OF STEPS        0
Info: STEPS PER CYCLE        20
Info: PERIODIC CELL BASIS 1  46 0 0
Info: PERIODIC CELL BASIS 2  0 46 0
Info: PERIODIC CELL BASIS 3  0 0 42.651
Info: PERIODIC CELL CENTER   0 0 0
Info: WRAPPING ALL CLUSTERS AROUND PERIODIC BOUNDARIES ON OUTPUT.
Info: FIRST LDB TIMESTEP     100
Info: HOM BACKGROUND SCALING 1
Info: PME BACKGROUND SCALING 1
Info: MAX SELF PARTITIONS    50
Info: MAX PAIR PARTITIONS    20
Info: SELF PARTITION ATOMS   125
Info: PAIR PARTITION ATOMS   200
Info: PAIR2 PARTITION ATOMS  400
Info: MIN ATOMS PER PATCH    100
Info: VELOCITY FILE          cntwieq-01.restart.vel
Info: CENTER OF MASS MOVING INITIALLY? NO
Info: DIELECTRIC             1
Info: EXCLUDE                SCALED ONE-FOUR
Info: 1-4 SCALE FACTOR       1
Info: DCD FILENAME           cntwief-01a.dcd
Info: DCD FREQUENCY          1000
Info: DCD FIRST STEP         1000
Info: DCD FILE WILL CONTAIN UNIT CELL DATA
Info: NO EXTENDED SYSTEM TRAJECTORY OUTPUT
Info: NO VELOCITY DCD OUTPUT
Info: OUTPUT FILENAME        cntwief-01a
Info: BINARY OUTPUT FILES WILL BE USED
Info: RESTART FILENAME       cntwief-01a.restart
Info: RESTART FREQUENCY      1000
Info: BINARY RESTART FILES WILL BE USED
Info: SWITCHING ACTIVE
Info: SWITCHING ON           10
Info: SWITCHING OFF          12
Info: PAIRLIST DISTANCE      13.5
Info: PAIRLIST SHRINK RATE   0.01
Info: PAIRLIST GROW RATE     0.01
Info: PAIRLIST TRIGGER       0.3
Info: PAIRLISTS PER CYCLE    2
Info: PAIRLISTS ENABLED
Info: MARGIN                 0
Info: HYDROGEN GROUP CUTOFF  2.5
Info: PATCH DIMENSION        16
Info: ENERGY OUTPUT STEPS    100
Info: CROSSTERM ENERGY INCLUDED IN DIHEDRAL
Info: TIMING OUTPUT STEPS    1000
Info: FIXED ATOMS ACTIVE
Info: ELECTRIC FIELD ACTIVE
Info: E-FIELD VECTOR         (0, 0, 0.54)
Info: LANGEVIN DYNAMICS ACTIVE
Info: LANGEVIN TEMPERATURE   300
Info: LANGEVIN DAMPING COEFFICIENT IS 1 INVERSE PS
Info: LANGEVIN DYNAMICS NOT APPLIED TO HYDROGENS
Info: PARTICLE MESH EWALD (PME) ACTIVE
Info: PME TOLERANCE               1e-06
Info: PME EWALD COEFFICIENT       0.257952
Info: PME INTERPOLATION ORDER     4
Info: PME GRID DIMENSIONS         48 48 48
Info: PME MAXIMUM GRID SPACING    1.5
Info: FULL ELECTROSTATIC EVALUATION FREQUENCY      4
Info: USING VERLET I (r-RESPA) MTS SCHEME.
Info: C1 SPLITTING OF LONG RANGE ELECTROSTATICS
Info: PLACING ATOMS IN PATCHES BY HYDROGEN GROUPS
Info: NONBONDED FORCES EVALUATED EVERY 2 STEPS
Info: RANDOM NUMBER SEED     1162557412
Info: USE HYDROGEN BONDS?    NO
Info: COORDINATE PDB         cntwi.pdb
Info: STRUCTURE FILE         cntwi.psf
Info: PARAMETER file: CHARMM format!
Info: PARAMETERS             par_all27_prot_lipid.prm
Info: USING ARITHMETIC MEAN TO COMBINE L-J SIGMA PARAMETERS
Info: BINARY COORDINATES     cntwieq-01.restart.coor
Info: SUMMARY OF PARAMETERS:
Info: 179 BONDS
Info: 441 ANGLES
Info: 534 DIHEDRAL
Info: 49 IMPROPER
Info: 0 CROSSTERM
Info: 89 VDW
Info: 0 VDW_PAIRS
Info: STRUCTURE SUMMARY:
Info: 7402 ATOMS
Info: 4092 BONDS
Info: 2046 ANGLES
Info: 0 DIHEDRALS
Info: 0 IMPROPERS
Info: 0 CROSSTERMS
Info: 0 EXCLUSIONS
Info: 1184 FIXED ATOMS
Info: 18654 DEGREES OF FREEDOM
Info: 3310 HYDROGEN GROUPS
Info: 1184 HYDROGEN GROUPS WITH ALL ATOMS FIXED
Info: TOTAL MASS = 53418.1 amu
Info: TOTAL CHARGE = 0 e
Info: REMOVING COM VELOCITY -0.0182148 0.0323341 -0.0411773
Info: NONBONDED TABLE R-SQUARED SPACING: 0.0625
Info: NONBONDED TABLE SIZE: 769 POINTS
TCL: Running for 1000000 steps
Info: Adjusted background load on 29 nodes.
Info: 1133 of 1133 computes have background load > 0.3937
Info: 1133 of 1133 computes have background load > 0.472441
Info: 1133 of 1133 computes have background load > 0.551181
Info: 806 of 1133 computes have background load > 0.629921
Info: 484 of 1133 computes have background load > 0.708661
ETITLE: TS BOND ANGLE DIHED IMPRP ELECT VDW BOUNDARY MISC KINETIC TOTAL TEMP TOTAL2 TOTAL3 TEMPAVG PRESSURE GPRESSURE VOLUME PRESSAVG GPRESSAVG
ENERGY: 0 1875.0403 1119.4395 0.0000 0.0000 -33569.7572 2797.6628 0.0000 -12.4649 5417.1999 -22372.8797 292.2761 -22288.3024 -22288.3024 292.2761 1299.5291 -305.3947 90249.5160 1299.5291 -305.3947
ENERGY: 200000 1850.2101 1129.7041 0.0000 0.0000 -33625.5689 2782.3540 0.0000 -335.0942 5498.1745 -22700.2204 296.6449 -22614.5317 -22617.8263 295.2148 1859.8779 -176.8363 90249.5160 -127.5940 -125.6852
ENERGY: 400000 1910.6921 1122.5606 0.0000 0.0000 -33550.1968 2780.1758 0.0000 -427.3918 5571.7099 -22592.4503 300.6124 -22505.8081 -22507.1909 300.9851 1524.8078 -210.3714 90249.5160 -377.7693 -373.4088
ENERGY: 600000 1875.1600 1111.0783 0.0000 0.0000 -33631.1893 2831.9571 0.0000 -602.2761 5513.2521 -22902.0179 297.4584 -22813.9830 -22820.2141 298.3208 2018.2872 -137.9045 90249.5160 -364.9778 -368.1568
ENERGY: 800000 1986.2661 1181.1483 0.0000 0.0000 -33777.7433 2800.0268 0.0000 -762.1723 5502.5321 -23069.9423 296.8800 -22983.6942 -22984.3668 299.1802 863.7616 -199.7766 90249.5160 -252.3872 -250.7282
ENERGY: 1000000 1873.8306 1121.5555 0.0000 0.0000 -33458.7901 2770.3704 0.0000 -903.9481 5542.0483 -23054.9334 299.0121 -22968.8661 -22969.6533 298.8605 1751.4634 -65.2279 90249.5160 -308.3124 -308.5172
