Info: SIMULATION PARAMETERS:
Info: TIMESTEP               1
Info: NUMBER OF STEPS        0
Info: STEPS PER CYCLE        20
Info: PERIODIC CELL BASIS 1  46 0 0
Info: PERIODIC CELL BASIS 2  0 46 0
Info: PERIODIC CELL BASIS 3  0 0 48
Info: PERIODIC CELL CENTER   0 0 0
Info: WRAPPING ALL CLUSTERS AROUND PERIODIC BOUNDARIES ON OUTPUT.
Info: FIRST LDB TIMESTEP     100
Info: HOM BACKGROUND SCALING 1
Info: PME BACKGROUND SCALING 1
Info: MAX SELF PARTITIONS    50
Info: MAX PAIR PARTITIONS    20
Info: SELF PARTITION ATOMS   125
Info: PAIR PARTITION ATOMS   200
Info: PAIR2 PARTITION ATOMS  400
Info: MIN ATOMS PER PATCH    100
Info: INITIAL TEMPERATURE    300
Info: CENTER OF MASS MOVING INITIALLY? NO
Info: DIELECTRIC             1
Info: EXCLUDE                SCALED ONE-FOUR
Info: 1-4 SCALE FACTOR       1
Info: DCD FILENAME           cntwieq-01.dcd
Info: DCD FREQUENCY          1000
Info: DCD FIRST STEP         1000
Info: DCD FILE WILL CONTAIN UNIT CELL DATA
Info: NO EXTENDED SYSTEM TRAJECTORY OUTPUT
Info: NO VELOCITY DCD OUTPUT
Info: OUTPUT FILENAME        cntwieq-01
Info: BINARY OUTPUT FILES WILL BE USED
Info: RESTART FILENAME       cntwieq-01.restart
Info: RESTART FREQUENCY      1000
Info: BINARY RESTART FILES WILL BE USED
Info: SWITCHING ACTIVE
Info: SWITCHING ON           10
Info: SWITCHING OFF          12
Info: PAIRLIST DISTANCE      13.5
Info: PAIRLIST SHRINK RATE   0.01
Info: PAIRLIST GROW RATE     0.01
Info: PAIRLIST TRIGGER       0.3
Info: PAIRLISTS PER CYCLE    2
Info: PAIRLISTS ENABLED
Info: MARGIN                 0.96
Info: HYDROGEN GROUP CUTOFF  2.5
Info: PATCH DIMENSION        16.96
Info: ENERGY OUTPUT STEPS    100
Info: CROSSTERM ENERGY INCLUDED IN DIHEDRAL
Info: TIMING OUTPUT STEPS    1000
Info: FIXED ATOMS ACTIVE
Info: LANGEVIN DYNAMICS ACTIVE
Info: LANGEVIN TEMPERATURE   300
Info: LANGEVIN DAMPING COEFFICIENT IS 1 INVERSE PS
Info: LANGEVIN DYNAMICS NOT APPLIED TO HYDROGENS
Info: LANGEVIN PISTON PRESSURE CONTROL ACTIVE
Info:        TARGET PRESSURE IS 1.01325 BAR
Info:     OSCILLATION PERIOD IS 200 FS
Info:             DECAY TIME IS 100 FS
Info:     PISTON TEMPERATURE IS 300 K
Info:       PRESSURE CONTROL IS ATOM-BASED
Info:    INITIAL STRAIN RATE IS 0 0 0
Info:       CELL FLUCTUATION IS ANISOTROPIC
Info:     CONSTANT AREA PRESSURE CONTROL ACTIVE
Info: PARTICLE MESH EWALD (PME) ACTIVE
Info: PME TOLERANCE               1e-06
Info: PME EWALD COEFFICIENT       0.257952
Info: PME INTERPOLATION ORDER     4
Info: PME GRID DIMENSIONS         48 48 48
Info: PME MAXIMUM GRID SPACING    1.5
Info: FULL ELECTROSTATIC EVALUATION FREQUENCY      4
Info: USING VERLET I (r-RESPA) MTS SCHEME.
Info: C1 SPLITTING OF LONG RANGE ELECTROSTATICS
Info: PLACING ATOMS IN PATCHES BY HYDROGEN GROUPS
Info: NONBONDED FORCES EVALUATED EVERY 2 STEPS
Info: RANDOM NUMBER SEED     1162345046
Info: USE HYDROGEN BONDS?    NO
Info: COORDINATE PDB         cntwi.pdb
Info: STRUCTURE FILE         cntwi.psf
Info: PARAMETER file: CHARMM format!
Info: PARAMETERS             par_all27_prot_lipid.prm
Info: USING ARITHMETIC MEAN TO COMBINE L-J SIGMA PARAMETERS
Info: SUMMARY OF PARAMETERS:
Info: 179 BONDS
Info: 441 ANGLES
Info: 534 DIHEDRAL
Info: 49 IMPROPER
Info: 0 CROSSTERM
Info: 89 VDW
Info: 0 VDW_PAIRS
Info: STRUCTURE SUMMARY:
Info: 7402 ATOMS
Info: 4092 BONDS
Info: 2046 ANGLES
Info: 0 DIHEDRALS
Info: 0 IMPROPERS
Info: 0 CROSSTERMS
Info: 0 EXCLUSIONS
Info: 1184 FIXED ATOMS
Info: 18654 DEGREES OF FREEDOM
Info: 3310 HYDROGEN GROUPS
Info: 1184 HYDROGEN GROUPS WITH ALL ATOMS FIXED
Info: TOTAL MASS = 53418.1 amu
Info: TOTAL CHARGE = 0 e
Info: REMOVING COM VELOCITY 0.0327995 -0.0316191 -0.120372
Info: NONBONDED TABLE R-SQUARED SPACING: 0.0625
Info: NONBONDED TABLE SIZE: 769 POINTS
TCL: Minimizing for 1000 steps
Info: Adjusted background load on 32 nodes.
Info: 1135 of 1135 computes have background load > 1.31693
Info: 1135 of 1135 computes have background load > 1.58032
Info: 1135 of 1135 computes have background load > 1.84371
Info: 1135 of 1135 computes have background load > 2.10709
Info: 938 of 1135 computes have background load > 2.37048
Info: 806 of 1135 computes have background load > 2.63387
Info: 655 of 1135 computes have background load > 2.89726
Info: 463 of 1135 computes have background load > 3.16064
Info: 251 of 1135 computes have background load > 3.42403
ETITLE: TS BOND ANGLE DIHED IMPRP ELECT VDW BOUNDARY MISC KINETIC TOTAL TEMP TOTAL2 TOTAL3 TEMPAVG PRESSURE GPRESSURE VOLUME PRESSAVG GPRESSAVG
ENERGY: 0 1935.9263 462.1246 0.0000 0.0000 -19312.6345 28409.7880 0.0000 0.0000 0.0000 11495.2044 0.0000 11495.2044 11495.2044 0.0000 69613.6903 71210.3125 101568.0000 69613.6903 71210.3125
ENERGY: 200 818.3968 550.5068 0.0000 0.0000 -31340.9767 1786.2104 0.0000 0.0000 0.0000 -28185.8627 0.0000 -28185.8627 -28185.8627 0.0000 -7168.8361 -5648.6811 101568.0000 -7168.8361 -5648.6811
ENERGY: 400 807.3827 572.2769 0.0000 0.0000 -34230.1683 2763.3737 0.0000 0.0000 0.0000 -30087.1350 0.0000 -30087.1350 -30087.1350 0.0000 -4786.8830 -4447.5245 101568.0000 -4786.8830 -4447.5245
ENERGY: 600 814.7878 585.9671 0.0000 0.0000 -35753.4322 3134.4370 0.0000 0.0000 0.0000 -31218.2403 0.0000 -31218.2403 -31218.2403 0.0000 -4131.5746 -4209.1235 101568.0000 -4131.5746 -4209.1235
ENERGY: 800 852.3085 601.7869 0.0000 0.0000 -36312.0879 3236.8857 0.0000 0.0000 0.0000 -31621.1068 0.0000 -31621.1068 -31621.1068 0.0000 -4348.0038 -4281.5992 101568.0000 -4348.0038 -4281.5992
ENERGY: 1000 876.5248 616.7801 0.0000 0.0000 -37182.1025 3614.4467 0.0000 0.0000 0.0000 -32074.3510 0.0000 -32074.3510 -32074.3510 0.0000 -3586.7019 -3600.5112 101568.0000 -3586.7019 -3600.5112
TCL: Running for 1000000 steps
ETITLE: TS BOND ANGLE DIHED IMPRP ELECT VDW BOUNDARY MISC KINETIC TOTAL TEMP TOTAL2 TOTAL3 TEMPAVG PRESSURE GPRESSURE VOLUME PRESSAVG GPRESSAVG
ENERGY: 1000 876.5248 616.7801 0.0000 0.0000 -37182.1025 3614.4467 0.0000 0.0000 5438.6498 -26635.7012 293.4334 -26599.2937 -26735.8218 293.4334 -1055.8712 -2751.2329 101568.0000 -1055.8712 -2751.2329
ENERGY: 182800 1871.1478 1119.1814 0.0000 0.0000 -33452.4682 2753.3969 0.0000 0.0000 5460.2095 -22248.5326 294.5966 -22162.8481 -22161.8013 296.9556 1695.1594 -204.9323 89805.0450 -141.1330 -134.4827
ENERGY: 364700 1899.0036 1089.1773 0.0000 0.0000 -33730.9198 2877.7312 0.0000 0.0000 5542.2954 -22322.7123 299.0254 -22238.4579 -22235.7281 298.8436 1263.1384 -122.7879 89711.9002 -187.0973 -179.8338
ENERGY: 546500 1872.6086 1166.1822 0.0000 0.0000 -33606.4595 2745.0245 0.0000 0.0000 5562.7284 -22259.9159 300.1278 -22174.3231 -22176.5614 298.3466 1788.8676 -152.0741 89355.2380 34.2471 36.0019
ENERGY: 728400 1919.0616 1113.1361 0.0000 0.0000 -33630.8314 2793.5242 0.0000 0.0000 5572.4009 -22232.7085 300.6497 -22146.9736 -22150.0973 297.8083 1211.7620 -406.9681 90524.0898 -306.7677 -302.6460
ENERGY: 910200 1878.8283 1101.3134 0.0000 0.0000 -33554.3516 2748.8894 0.0000 0.0000 5469.6807 -22355.6398 295.1076 -22271.2116 -22271.1943 294.8349 1100.5874 -476.2725 90163.4253 -341.7149 -341.2553
